[General]
network = UDPDroneNetwork
sim-time-limit = 300s
**.drone[*].numApps = 2
**.drone[*].app[0].typename = "UdpEchoApp"
**.drone[*].app[0].localPort = 14551
**.drone[*].app[1].typename = "TcpServerHostApp"
**.drone[*].app[1].localPort = 18789
**.attacker.numApps = 1
**.attacker.app[0].typename = "UdpBasicBurst"
**.attacker.app[0].destAddresses = "drone[0] drone[1] drone[2]"
**.attacker.app[0].messageLength = intuniform(14,263)B
**.attacker.app[0].sendInterval = exponential(100ms)
